egret/models/tests/uc_test_instances/tiny_uc_12.json
{"elements": {"load": {}, "bus": {"Arne": {"id": "113", "base_kv": 230.0, "matpower_bustype": "ref", "vm": 1.03943, "va": 0.0, "v_min": 0.95, "v_max": 1.05, "area": "1", "zone": "14.0"}}, "generator": {"gen": {"bus": "Arne", "in_service": true, "mbase": 100.0, "pg": 55.0, "qg": 10.99, "p_min": 22.0, "p_max": 55.0, "q_min": -15.0, "q_max": 19.0, "ramp_q": 3.7, "fuel": "NG", "unit_type": "CT", "area": "3", "zone": "32.0", "generator_type": "thermal", "p_fuel": {"data_type": "fuel_curve", "values": [[22.0, 338.69], [33.0, 434.31], [44.0, 542.93], [55.0, 652.26]]}, "startup_fuel": [[2.2, 14.574]], "non_fuel_startup_cost": 0.0, "shutdown_cost": 0.0, "agc_capable": true, "p_min_agc": 22.0, "p_max_agc": 55.0, "ramp_agc": 3.7, "ramp_up_60min": 222.0, "ramp_down_60min": 222.0, "fuel_cost": 3.88722, "startup_capacity": 22.0, "shutdown_capacity": 22.0, "min_up_time": 2.2, "min_down_time": 2.2, "initial_status": 1, "initial_p_output": 0.0, "initial_q_output": 0.0, "future_status": 0.0, "startup_curve": [], "shutdown_curve": []}}}, "system": {"name": "RTS-GMLC", "baseMVA": 100.0, "reference_bus": "Arne", "reference_bus_angle": 0, "time_period_length_minutes": 60, "time_keys": ["1", "2", "3", "4"]}}